# File generated by Flopy version 3.5.0.dev0 on 10/09/2023 at 14:30:13.
BEGIN Options
  SAVE_FLOWS
END Options

BEGIN GRIDDATA
  icelltype
    INTERNAL  FACTOR  1
    1  1  1  1  1  1  1  1  1  1  1  1  1  1  1  1  1  1  1  1
    1  1  1  1  1  1  1  1  1  1  1  1  1  1  1  1  1  1  1  1
    1  1  1  1  1  1  1  1  1  1  1  1  1  1  1  1  1  1  1  1
    1  1  1  1  1  1  1  1  1  1  1  1  1  1  1  1  1  1  1  1
    1  1  1  1  1  1  1  1  1  1  1  1  1  1  1  1  1  1  1  1
    1  1  1  1  1  1  1  1  1  1  1  1  1  1  1  1  1  1  1  1
    1  1  1  1  1  1  1  1  1  1  1  1  1  1  1  1  1  1  1  1
    1  1  1  1  1  1  1  1  1  1  1  1  1  1  1  1  1  1  1  1
    1  1  1  1  1  1  1  1  1  1  1  1  1  1  1  1  1  1  1  1
    1  1  1  1  1  1  1  1  1  1  1  1  1  1  1  1  1  1  1  1
    1  1  1  1  1  1  1  1  1  1  1  1  1  1  1  1  1  1  1  1
    1  1  1  1  1  1  1  1  1  1  1  1  1  1  1  1  1  1  1  1
    1  1  1  1  1  1  1  1  1  1  1  1  1  1  1  1  1  1  1  1
    1  1  1  1  1  1  1  1  1  1  1  1  1  1  1  1  1  1  1  1
    1  1  1  1  1  1  1  1  1  1  1  1  1  1  1  1  1  1  1  1
    1  1  1  1  1  1  1  1  1  1  1  1  1  1  1  1  1  1  1  1
    1  1  1  1  1  1  1  1  1  1  1  1  1  1  1  1  1  1  1  1
    1  1  1  1  1  1  1  1  1  1  1  1  1  1  1  1  1  1  1  1
    1  1  1  1  1  1  1  1  1  1  1  1  1  1  1  1  1  1  1  1
    1  1  1  1  1  1  1  1  1  1  1  1  1  1  1  1  1  1  1  1
    1  1  1  1  1  1  1  1  1  1  1  1  1  1  1  1  1  1  1  1
    1  1  1  1  1  1  1  1  1  1  1  1  1  1  1  1  1  1  1  1
    1  1  1  1  1  1  1  1  1  1  1  1  1  1  1  1  1  1  1  1
    1  1  1  1  1  1  1  1  1  1  1  1  1  1  1  1  1  1  1  1
    1  1  1  1  1  1  1  1  1  1  1  1  1  1  1  1  1  1  1  1
    1  1  1  1  1  1  1  1  1  1  1  1  1  1  1  1  1  1  1  1
    1  1  1  1  1  1  1  1  1  1  1  1  1  1  1  1  1  1  1  1
    1  1  1  1  1  1  1  1  1  1  1  1  1  1  1  1  1  1  1  1
    1  1  1  1  1  1  1  1  1  1  1  1  1  1  1  1  1  1  1  1
    1  1  1  1  1  1  1  1  1  1  1  1  1  1  1  1  1  1  1  1
    1  1  1  1  1  1  1  1  1  1  1  1  1  1  1  1  1  1  1  1
    1  1  1  1  1  1  1  1  1  1  1  1  1  1  1  1  1  1  1  1
    1  1  1  1  1  1  1  1  1  1  1  1  1  1  1  1  1  1  1  1
    1  1  1  1  1  1  1  1  1  1  1  1  1  1  1  1  1  1  1  1
    1  1  1  1  1  1  1  1  1  1  1  1  1  1  1  1  1  1  1  1
    1  1  1  1  1  1  1  1  1  1  1  1  1  1  1  1  1  1  1  1
    1  1  1  1  1  1  1  1  1  1  1  1  1  1  1  1  1  1  1  1
    1  1  1  1  1  1  1  1  1  1  1  1  1  1  1  1  1  1  1  1
    1  1  1  1  1  1  1  1  1  1  1  1  1  1  1  1  1  1  1  1
    1  1  1  1  1  1  1  1  1  1  1  1  1  1  1  1  1  1  1  1
  k
    INTERNAL  FACTOR  1.0
        11.10000000      11.10000000      11.10000000      11.10000000      11.10000000      11.10000000      11.10000000      11.10000000      11.10000000      11.10000000      11.10000000      11.10000000      11.10000000      11.10000000      11.10000000      11.10000000      11.10000000      11.10000000      11.10000000      11.10000000
        11.10000000      11.10000000      11.10000000      11.10000000      11.10000000      11.10000000      11.10000000      11.10000000      11.10000000      11.10000000      11.10000000      11.10000000      11.10000000      11.10000000      11.10000000      11.10000000      11.10000000      11.10000000      11.10000000      11.10000000
        11.10000000      11.10000000      11.10000000      11.10000000      11.10000000      11.10000000      11.10000000      11.10000000      11.10000000      11.10000000      11.10000000      11.10000000      11.10000000      11.10000000      11.10000000      11.10000000      11.10000000      11.10000000      11.10000000      11.10000000
        11.10000000      11.10000000      11.10000000      11.10000000      11.10000000      11.10000000      11.10000000      11.10000000      11.10000000      11.10000000      11.10000000      11.10000000      11.10000000      11.10000000      11.10000000      11.10000000      11.10000000      11.10000000      11.10000000      11.10000000
        11.10000000      11.10000000      11.10000000      11.10000000      11.10000000      11.10000000      11.10000000      11.10000000      11.10000000      11.10000000      11.10000000      11.10000000      11.10000000      11.10000000      11.10000000      11.10000000      11.10000000      11.10000000      11.10000000      11.10000000
        11.10000000      11.10000000      11.10000000      11.10000000      11.10000000      11.10000000      11.10000000      11.10000000      11.10000000      11.10000000      11.10000000      11.10000000      11.10000000      11.10000000      11.10000000      11.10000000      11.10000000      11.10000000      11.10000000      11.10000000
        11.10000000      11.10000000      11.10000000      11.10000000      11.10000000      11.10000000      11.10000000      11.10000000      11.10000000      11.10000000      11.10000000      11.10000000      11.10000000      11.10000000      11.10000000      11.10000000      11.10000000      11.10000000      11.10000000      11.10000000
        11.10000000      11.10000000      11.10000000      11.10000000      11.10000000      11.10000000      11.10000000      11.10000000      11.10000000      11.10000000      11.10000000      11.10000000      11.10000000      11.10000000      11.10000000      11.10000000      11.10000000      11.10000000      11.10000000      11.10000000
        11.10000000      11.10000000      11.10000000      11.10000000      11.10000000      11.10000000      11.10000000      11.10000000      11.10000000      11.10000000      11.10000000      11.10000000      11.10000000      11.10000000      11.10000000      11.10000000      11.10000000      11.10000000      11.10000000      11.10000000
        11.10000000      11.10000000      11.10000000      11.10000000      11.10000000      11.10000000      11.10000000      11.10000000      11.10000000      11.10000000      11.10000000      11.10000000      11.10000000      11.10000000      11.10000000      11.10000000      11.10000000      11.10000000      11.10000000      11.10000000
        11.10000000      11.10000000      11.10000000      11.10000000      11.10000000      11.10000000      11.10000000      11.10000000      11.10000000      11.10000000      11.10000000      11.10000000      11.10000000      11.10000000      11.10000000      11.10000000      11.10000000      11.10000000      11.10000000      11.10000000
        11.10000000      11.10000000      11.10000000      11.10000000      11.10000000      11.10000000      11.10000000      11.10000000      11.10000000      11.10000000      11.10000000      11.10000000      11.10000000      11.10000000      11.10000000      11.10000000      11.10000000      11.10000000      11.10000000      11.10000000
        11.10000000      11.10000000      11.10000000      11.10000000      11.10000000      11.10000000      11.10000000      11.10000000      11.10000000      11.10000000      11.10000000      11.10000000      11.10000000      11.10000000      11.10000000      11.10000000      11.10000000      11.10000000      11.10000000      11.10000000
        11.10000000      11.10000000      11.10000000      11.10000000      11.10000000      11.10000000      11.10000000      11.10000000      11.10000000      11.10000000      11.10000000      11.10000000      11.10000000      11.10000000      11.10000000      11.10000000      11.10000000      11.10000000      11.10000000      11.10000000
        11.10000000      11.10000000      11.10000000      11.10000000      11.10000000      11.10000000      11.10000000      11.10000000      11.10000000      11.10000000      11.10000000      11.10000000      11.10000000      11.10000000      11.10000000      11.10000000      11.10000000      11.10000000      11.10000000      11.10000000
        11.10000000      11.10000000      11.10000000      11.10000000      11.10000000      11.10000000      11.10000000      11.10000000      11.10000000      11.10000000      11.10000000      11.10000000      11.10000000      11.10000000      11.10000000      11.10000000      11.10000000      11.10000000      11.10000000      11.10000000
        11.10000000      11.10000000      11.10000000      11.10000000      11.10000000      11.10000000      11.10000000      11.10000000      11.10000000      11.10000000      11.10000000      11.10000000      11.10000000      11.10000000      11.10000000      11.10000000      11.10000000      11.10000000      11.10000000      11.10000000
        11.10000000      11.10000000      11.10000000      11.10000000      11.10000000      11.10000000      11.10000000      11.10000000      11.10000000      11.10000000      11.10000000      11.10000000      11.10000000      11.10000000      11.10000000      11.10000000      11.10000000      11.10000000      11.10000000      11.10000000
        11.10000000      11.10000000      11.10000000      11.10000000      11.10000000      11.10000000      11.10000000      11.10000000      11.10000000      11.10000000      11.10000000      11.10000000      11.10000000      11.10000000      11.10000000      11.10000000      11.10000000      11.10000000      11.10000000      11.10000000
        11.10000000      11.10000000      11.10000000      11.10000000      11.10000000      11.10000000      11.10000000      11.10000000      11.10000000      11.10000000      11.10000000      11.10000000      11.10000000      11.10000000      11.10000000      11.10000000      11.10000000      11.10000000      11.10000000      11.10000000
        11.10000000      11.10000000      11.10000000      11.10000000      11.10000000      11.10000000      11.10000000      11.10000000      11.10000000      11.10000000      11.10000000      11.10000000      11.10000000      11.10000000      11.10000000      11.10000000      11.10000000      11.10000000      11.10000000      11.10000000
        11.10000000      11.10000000      11.10000000      11.10000000      11.10000000      11.10000000      11.10000000      11.10000000      11.10000000      11.10000000      11.10000000      11.10000000      11.10000000      11.10000000      11.10000000      11.10000000      11.10000000      11.10000000      11.10000000      11.10000000
        11.10000000      11.10000000      11.10000000      11.10000000      11.10000000      11.10000000      11.10000000      11.10000000      11.10000000      11.10000000      11.10000000      11.10000000      11.10000000      11.10000000      11.10000000      11.10000000      11.10000000      11.10000000      11.10000000      11.10000000
        11.10000000      11.10000000      11.10000000      11.10000000      11.10000000      11.10000000      11.10000000      11.10000000      11.10000000      11.10000000      11.10000000      11.10000000      11.10000000      11.10000000      11.10000000      11.10000000      11.10000000      11.10000000      11.10000000      11.10000000
        11.10000000      11.10000000      11.10000000      11.10000000      11.10000000      11.10000000      11.10000000      11.10000000      11.10000000      11.10000000      11.10000000      11.10000000      11.10000000      11.10000000      11.10000000      11.10000000      11.10000000      11.10000000      11.10000000      11.10000000
        11.10000000      11.10000000      11.10000000      11.10000000      11.10000000      11.10000000      11.10000000      11.10000000      11.10000000      11.10000000      11.10000000      11.10000000      11.10000000      11.10000000      11.10000000      11.10000000      11.10000000      11.10000000      11.10000000      11.10000000
        11.10000000      11.10000000      11.10000000      11.10000000      11.10000000      11.10000000      11.10000000      11.10000000      11.10000000      11.10000000      11.10000000      11.10000000      11.10000000      11.10000000      11.10000000      11.10000000      11.10000000      11.10000000      11.10000000      11.10000000
        11.10000000      11.10000000      11.10000000      11.10000000      11.10000000      11.10000000      11.10000000      11.10000000      11.10000000      11.10000000      11.10000000      11.10000000      11.10000000      11.10000000      11.10000000      11.10000000      11.10000000      11.10000000      11.10000000      11.10000000
        11.10000000      11.10000000      11.10000000      11.10000000      11.10000000      11.10000000      11.10000000      11.10000000      11.10000000      11.10000000      11.10000000      11.10000000      11.10000000      11.10000000      11.10000000      11.10000000      11.10000000      11.10000000      11.10000000      11.10000000
        11.10000000      11.10000000      11.10000000      11.10000000      11.10000000      11.10000000      11.10000000      11.10000000      11.10000000      11.10000000      11.10000000      11.10000000      11.10000000      11.10000000      11.10000000      11.10000000      11.10000000      11.10000000      11.10000000      11.10000000
        11.10000000      11.10000000      11.10000000      11.10000000      11.10000000      11.10000000      11.10000000      11.10000000      11.10000000      11.10000000      11.10000000      11.10000000      11.10000000      11.10000000      11.10000000      11.10000000      11.10000000      11.10000000      11.10000000      11.10000000
        11.10000000      11.10000000      11.10000000      11.10000000      11.10000000      11.10000000      11.10000000      11.10000000      11.10000000      11.10000000      11.10000000      11.10000000      11.10000000      11.10000000      11.10000000      11.10000000      11.10000000      11.10000000      11.10000000      11.10000000
        11.10000000      11.10000000      11.10000000      11.10000000      11.10000000      11.10000000      11.10000000      11.10000000      11.10000000      11.10000000      11.10000000      11.10000000      11.10000000      11.10000000      11.10000000      11.10000000      11.10000000      11.10000000      11.10000000      11.10000000
        11.10000000      11.10000000      11.10000000      11.10000000      11.10000000      11.10000000      11.10000000      11.10000000      11.10000000      11.10000000      11.10000000      11.10000000      11.10000000      11.10000000      11.10000000      11.10000000      11.10000000      11.10000000      11.10000000      11.10000000
        11.10000000      11.10000000      11.10000000      11.10000000      11.10000000      11.10000000      11.10000000      11.10000000      11.10000000      11.10000000      11.10000000      11.10000000      11.10000000      11.10000000      11.10000000      11.10000000      11.10000000      11.10000000      11.10000000      11.10000000
        11.10000000      11.10000000      11.10000000      11.10000000      11.10000000      11.10000000      11.10000000      11.10000000      11.10000000      11.10000000      11.10000000      11.10000000      11.10000000      11.10000000      11.10000000      11.10000000      11.10000000      11.10000000      11.10000000      11.10000000
        11.10000000      11.10000000      11.10000000      11.10000000      11.10000000      11.10000000      11.10000000      11.10000000      11.10000000      11.10000000      11.10000000      11.10000000      11.10000000      11.10000000      11.10000000      11.10000000      11.10000000      11.10000000      11.10000000      11.10000000
        11.10000000      11.10000000      11.10000000      11.10000000      11.10000000      11.10000000      11.10000000      11.10000000      11.10000000      11.10000000      11.10000000      11.10000000      11.10000000      11.10000000      11.10000000      11.10000000      11.10000000      11.10000000      11.10000000      11.10000000
        11.10000000      11.10000000      11.10000000      11.10000000      11.10000000      11.10000000      11.10000000      11.10000000      11.10000000      11.10000000      11.10000000      11.10000000      11.10000000      11.10000000      11.10000000      11.10000000      11.10000000      11.10000000      11.10000000      11.10000000
        11.10000000      11.10000000      11.10000000      11.10000000      11.10000000      11.10000000      11.10000000      11.10000000      11.10000000      11.10000000      11.10000000      11.10000000      11.10000000      11.10000000      11.10000000      11.10000000      11.10000000      11.10000000      11.10000000      11.10000000
  k33
    INTERNAL  FACTOR  1.0
         1.11000000       1.11000000       1.11000000       1.11000000       1.11000000       1.11000000       1.11000000       1.11000000       1.11000000       1.11000000       1.11000000       1.11000000       1.11000000       1.11000000       1.11000000       1.11000000       1.11000000       1.11000000       1.11000000       1.11000000
         1.11000000       1.11000000       1.11000000       1.11000000       1.11000000       1.11000000       1.11000000       1.11000000       1.11000000       1.11000000       1.11000000       1.11000000       1.11000000       1.11000000       1.11000000       1.11000000       1.11000000       1.11000000       1.11000000       1.11000000
         1.11000000       1.11000000       1.11000000       1.11000000       1.11000000       1.11000000       1.11000000       1.11000000       1.11000000       1.11000000       1.11000000       1.11000000       1.11000000       1.11000000       1.11000000       1.11000000       1.11000000       1.11000000       1.11000000       1.11000000
         1.11000000       1.11000000       1.11000000       1.11000000       1.11000000       1.11000000       1.11000000       1.11000000       1.11000000       1.11000000       1.11000000       1.11000000       1.11000000       1.11000000       1.11000000       1.11000000       1.11000000       1.11000000       1.11000000       1.11000000
         1.11000000       1.11000000       1.11000000       1.11000000       1.11000000       1.11000000       1.11000000       1.11000000       1.11000000       1.11000000       1.11000000       1.11000000       1.11000000       1.11000000       1.11000000       1.11000000       1.11000000       1.11000000       1.11000000       1.11000000
         1.11000000       1.11000000       1.11000000       1.11000000       1.11000000       1.11000000       1.11000000       1.11000000       1.11000000       1.11000000       1.11000000       1.11000000       1.11000000       1.11000000       1.11000000       1.11000000       1.11000000       1.11000000       1.11000000       1.11000000
         1.11000000       1.11000000       1.11000000       1.11000000       1.11000000       1.11000000       1.11000000       1.11000000       1.11000000       1.11000000       1.11000000       1.11000000       1.11000000       1.11000000       1.11000000       1.11000000       1.11000000       1.11000000       1.11000000       1.11000000
         1.11000000       1.11000000       1.11000000       1.11000000       1.11000000       1.11000000       1.11000000       1.11000000       1.11000000       1.11000000       1.11000000       1.11000000       1.11000000       1.11000000       1.11000000       1.11000000       1.11000000       1.11000000       1.11000000       1.11000000
         1.11000000       1.11000000       1.11000000       1.11000000       1.11000000       1.11000000       1.11000000       1.11000000       1.11000000       1.11000000       1.11000000       1.11000000       1.11000000       1.11000000       1.11000000       1.11000000       1.11000000       1.11000000       1.11000000       1.11000000
         1.11000000       1.11000000       1.11000000       1.11000000       1.11000000       1.11000000       1.11000000       1.11000000       1.11000000       1.11000000       1.11000000       1.11000000       1.11000000       1.11000000       1.11000000       1.11000000       1.11000000       1.11000000       1.11000000       1.11000000
         1.11000000       1.11000000       1.11000000       1.11000000       1.11000000       1.11000000       1.11000000       1.11000000       1.11000000       1.11000000       1.11000000       1.11000000       1.11000000       1.11000000       1.11000000       1.11000000       1.11000000       1.11000000       1.11000000       1.11000000
         1.11000000       1.11000000       1.11000000       1.11000000       1.11000000       1.11000000       1.11000000       1.11000000       1.11000000       1.11000000       1.11000000       1.11000000       1.11000000       1.11000000       1.11000000       1.11000000       1.11000000       1.11000000       1.11000000       1.11000000
         1.11000000       1.11000000       1.11000000       1.11000000       1.11000000       1.11000000       1.11000000       1.11000000       1.11000000       1.11000000       1.11000000       1.11000000       1.11000000       1.11000000       1.11000000       1.11000000       1.11000000       1.11000000       1.11000000       1.11000000
         1.11000000       1.11000000       1.11000000       1.11000000       1.11000000       1.11000000       1.11000000       1.11000000       1.11000000       1.11000000       1.11000000       1.11000000       1.11000000       1.11000000       1.11000000       1.11000000       1.11000000       1.11000000       1.11000000       1.11000000
         1.11000000       1.11000000       1.11000000       1.11000000       1.11000000       1.11000000       1.11000000       1.11000000       1.11000000       1.11000000       1.11000000       1.11000000       1.11000000       1.11000000       1.11000000       1.11000000       1.11000000       1.11000000       1.11000000       1.11000000
         1.11000000       1.11000000       1.11000000       1.11000000       1.11000000       1.11000000       1.11000000       1.11000000       1.11000000       1.11000000       1.11000000       1.11000000       1.11000000       1.11000000       1.11000000       1.11000000       1.11000000       1.11000000       1.11000000       1.11000000
         1.11000000       1.11000000       1.11000000       1.11000000       1.11000000       1.11000000       1.11000000       1.11000000       1.11000000       1.11000000       1.11000000       1.11000000       1.11000000       1.11000000       1.11000000       1.11000000       1.11000000       1.11000000       1.11000000       1.11000000
         1.11000000       1.11000000       1.11000000       1.11000000       1.11000000       1.11000000       1.11000000       1.11000000       1.11000000       1.11000000       1.11000000       1.11000000       1.11000000       1.11000000       1.11000000       1.11000000       1.11000000       1.11000000       1.11000000       1.11000000
         1.11000000       1.11000000       1.11000000       1.11000000       1.11000000       1.11000000       1.11000000       1.11000000       1.11000000       1.11000000       1.11000000       1.11000000       1.11000000       1.11000000       1.11000000       1.11000000       1.11000000       1.11000000       1.11000000       1.11000000
         1.11000000       1.11000000       1.11000000       1.11000000       1.11000000       1.11000000       1.11000000       1.11000000       1.11000000       1.11000000       1.11000000       1.11000000       1.11000000       1.11000000       1.11000000       1.11000000       1.11000000       1.11000000       1.11000000       1.11000000
         1.11000000       1.11000000       1.11000000       1.11000000       1.11000000       1.11000000       1.11000000       1.11000000       1.11000000       1.11000000       1.11000000       1.11000000       1.11000000       1.11000000       1.11000000       1.11000000       1.11000000       1.11000000       1.11000000       1.11000000
         1.11000000       1.11000000       1.11000000       1.11000000       1.11000000       1.11000000       1.11000000       1.11000000       1.11000000       1.11000000       1.11000000       1.11000000       1.11000000       1.11000000       1.11000000       1.11000000       1.11000000       1.11000000       1.11000000       1.11000000
         1.11000000       1.11000000       1.11000000       1.11000000       1.11000000       1.11000000       1.11000000       1.11000000       1.11000000       1.11000000       1.11000000       1.11000000       1.11000000       1.11000000       1.11000000       1.11000000       1.11000000       1.11000000       1.11000000       1.11000000
         1.11000000       1.11000000       1.11000000       1.11000000       1.11000000       1.11000000       1.11000000       1.11000000       1.11000000       1.11000000       1.11000000       1.11000000       1.11000000       1.11000000       1.11000000       1.11000000       1.11000000       1.11000000       1.11000000       1.11000000
         1.11000000       1.11000000       1.11000000       1.11000000       1.11000000       1.11000000       1.11000000       1.11000000       1.11000000       1.11000000       1.11000000       1.11000000       1.11000000       1.11000000       1.11000000       1.11000000       1.11000000       1.11000000       1.11000000       1.11000000
         1.11000000       1.11000000       1.11000000       1.11000000       1.11000000       1.11000000       1.11000000       1.11000000       1.11000000       1.11000000       1.11000000       1.11000000       1.11000000       1.11000000       1.11000000       1.11000000       1.11000000       1.11000000       1.11000000       1.11000000
         1.11000000       1.11000000       1.11000000       1.11000000       1.11000000       1.11000000       1.11000000       1.11000000       1.11000000       1.11000000       1.11000000       1.11000000       1.11000000       1.11000000       1.11000000       1.11000000       1.11000000       1.11000000       1.11000000       1.11000000
         1.11000000       1.11000000       1.11000000       1.11000000       1.11000000       1.11000000       1.11000000       1.11000000       1.11000000       1.11000000       1.11000000       1.11000000       1.11000000       1.11000000       1.11000000       1.11000000       1.11000000       1.11000000       1.11000000       1.11000000
         1.11000000       1.11000000       1.11000000       1.11000000       1.11000000       1.11000000       1.11000000       1.11000000       1.11000000       1.11000000       1.11000000       1.11000000       1.11000000       1.11000000       1.11000000       1.11000000       1.11000000       1.11000000       1.11000000       1.11000000
         1.11000000       1.11000000       1.11000000       1.11000000       1.11000000       1.11000000       1.11000000       1.11000000       1.11000000       1.11000000       1.11000000       1.11000000       1.11000000       1.11000000       1.11000000       1.11000000       1.11000000       1.11000000       1.11000000       1.11000000
         1.11000000       1.11000000       1.11000000       1.11000000       1.11000000       1.11000000       1.11000000       1.11000000       1.11000000       1.11000000       1.11000000       1.11000000       1.11000000       1.11000000       1.11000000       1.11000000       1.11000000       1.11000000       1.11000000       1.11000000
         1.11000000       1.11000000       1.11000000       1.11000000       1.11000000       1.11000000       1.11000000       1.11000000       1.11000000       1.11000000       1.11000000       1.11000000       1.11000000       1.11000000       1.11000000       1.11000000       1.11000000       1.11000000       1.11000000       1.11000000
         1.11000000       1.11000000       1.11000000       1.11000000       1.11000000       1.11000000       1.11000000       1.11000000       1.11000000       1.11000000       1.11000000       1.11000000       1.11000000       1.11000000       1.11000000       1.11000000       1.11000000       1.11000000       1.11000000       1.11000000
         1.11000000       1.11000000       1.11000000       1.11000000       1.11000000       1.11000000       1.11000000       1.11000000       1.11000000       1.11000000       1.11000000       1.11000000       1.11000000       1.11000000       1.11000000       1.11000000       1.11000000       1.11000000       1.11000000       1.11000000
         1.11000000       1.11000000       1.11000000       1.11000000       1.11000000       1.11000000       1.11000000       1.11000000       1.11000000       1.11000000       1.11000000       1.11000000       1.11000000       1.11000000       1.11000000       1.11000000       1.11000000       1.11000000       1.11000000       1.11000000
         1.11000000       1.11000000       1.11000000       1.11000000       1.11000000       1.11000000       1.11000000       1.11000000       1.11000000       1.11000000       1.11000000       1.11000000       1.11000000       1.11000000       1.11000000       1.11000000       1.11000000       1.11000000       1.11000000       1.11000000
         1.11000000       1.11000000       1.11000000       1.11000000       1.11000000       1.11000000       1.11000000       1.11000000       1.11000000       1.11000000       1.11000000       1.11000000       1.11000000       1.11000000       1.11000000       1.11000000       1.11000000       1.11000000       1.11000000       1.11000000
         1.11000000       1.11000000       1.11000000       1.11000000       1.11000000       1.11000000       1.11000000       1.11000000       1.11000000       1.11000000       1.11000000       1.11000000       1.11000000       1.11000000       1.11000000       1.11000000       1.11000000       1.11000000       1.11000000       1.11000000
         1.11000000       1.11000000       1.11000000       1.11000000       1.11000000       1.11000000       1.11000000       1.11000000       1.11000000       1.11000000       1.11000000       1.11000000       1.11000000       1.11000000       1.11000000       1.11000000       1.11000000       1.11000000       1.11000000       1.11000000