# File generated by Flopy version 3.5.0.dev0 on 10/09/2023 at 14:30:13.
BEGIN options
  PRINT_OPTION  summary
  COMPLEXITY  complex
END options

