# File generated by Flopy version 3.5.0.dev0 on 10/09/2023 at 14:30:13.
BEGIN Options
  READASARRAYS
  SAVE_FLOWS
END Options

BEGIN PERIOD  1
  recharge
    INTERNAL  FACTOR  1.0
    7.59706100E-05  7.59706100E-05  7.59706100E-05  7.59706100E-05  7.59706100E-05  7.59706100E-05  7.59706100E-05  7.59706100E-05  7.59706100E-05  7.59706100E-05  7.59706100E-05  7.59706100E-05  7.59706100E-05  7.59706100E-05  7.59706100E-05  7.59706100E-05  7.59706100E-05  7.59706100E-05  7.59706100E-05  7.59706100E-05
    7.59706100E-05  7.59706100E-05  7.59706100E-05  7.59706100E-05  7.59706100E-05  7.59706100E-05  7.59706100E-05  7.59706100E-05  7.59706100E-05  7.59706100E-05  7.59706100E-05  7.59706100E-05  7.59706100E-05  7.59706100E-05  7.59706100E-05  7.59706100E-05  7.59706100E-05  7.59706100E-05  7.59706100E-05  7.59706100E-05
    7.59706100E-05  7.59706100E-05  7.59706100E-05  7.59706100E-05  7.59706100E-05  7.59706100E-05  7.59706100E-05  7.59706100E-05  7.59706100E-05  7.59706100E-05  7.59706100E-05  7.59706100E-05  7.59706100E-05  7.59706100E-05  7.59706100E-05  7.59706100E-05  7.59706100E-05  7.59706100E-05  7.59706100E-05  7.59706100E-05
    7.59706100E-05  7.59706100E-05  7.59706100E-05  7.59706100E-05  7.59706100E-05  7.59706100E-05  7.59706100E-05  7.59706100E-05  7.59706100E-05  7.59706100E-05  7.59706100E-05  7.59706100E-05  7.59706100E-05  7.59706100E-05  7.59706100E-05  7.59706100E-05  7.59706100E-05  7.59706100E-05  7.59706100E-05  7.59706100E-05
    7.59706100E-05  7.59706100E-05  7.59706100E-05  7.59706100E-05  7.59706100E-05  7.59706100E-05  7.59706100E-05  7.59706100E-05  7.59706100E-05  7.59706100E-05  7.59706100E-05  7.59706100E-05  7.59706100E-05  7.59706100E-05  7.59706100E-05  7.59706100E-05  7.59706100E-05  7.59706100E-05  7.59706100E-05  7.59706100E-05
    7.59706100E-05  7.59706100E-05  7.59706100E-05  7.59706100E-05  7.59706100E-05  7.59706100E-05  7.59706100E-05  7.59706100E-05  7.59706100E-05  7.59706100E-05  7.59706100E-05  7.59706100E-05  7.59706100E-05  7.59706100E-05  7.59706100E-05  7.59706100E-05  7.59706100E-05  7.59706100E-05  7.59706100E-05  7.59706100E-05
    7.59706100E-05  7.59706100E-05  7.59706100E-05  7.59706100E-05  7.59706100E-05  7.59706100E-05  7.59706100E-05  7.59706100E-05  7.59706100E-05  7.59706100E-05  7.59706100E-05  7.59706100E-05  7.59706100E-05  7.59706100E-05  7.59706100E-05  7.59706100E-05  7.59706100E-05  7.59706100E-05  7.59706100E-05  7.59706100E-05
    7.59706100E-05  7.59706100E-05  7.59706100E-05  7.59706100E-05  7.59706100E-05  7.59706100E-05  7.59706100E-05  7.59706100E-05  7.59706100E-05  7.59706100E-05  7.59706100E-05  7.59706100E-05  7.59706100E-05  7.59706100E-05  7.59706100E-05  7.59706100E-05  7.59706100E-05  7.59706100E-05  7.59706100E-05  7.59706100E-05
    7.59706100E-05  7.59706100E-05  7.59706100E-05  7.59706100E-05  7.59706100E-05  7.59706100E-05  7.59706100E-05  7.59706100E-05  7.59706100E-05  7.59706100E-05  7.59706100E-05  7.59706100E-05  7.59706100E-05  7.59706100E-05  7.59706100E-05  7.59706100E-05  7.59706100E-05  7.59706100E-05  7.59706100E-05  7.59706100E-05
    7.59706100E-05  7.59706100E-05  7.59706100E-05  7.59706100E-05  7.59706100E-05  7.59706100E-05  7.59706100E-05  7.59706100E-05  7.59706100E-05  7.59706100E-05  7.59706100E-05  7.59706100E-05  7.59706100E-05  7.59706100E-05  7.59706100E-05  7.59706100E-05  7.59706100E-05  7.59706100E-05  7.59706100E-05  7.59706100E-05
    7.59706100E-05  7.59706100E-05  7.59706100E-05  7.59706100E-05  7.59706100E-05  7.59706100E-05  7.59706100E-05  7.59706100E-05  7.59706100E-05  7.59706100E-05  7.59706100E-05  7.59706100E-05  7.59706100E-05  7.59706100E-05  7.59706100E-05  7.59706100E-05  7.59706100E-05  7.59706100E-05  7.59706100E-05  7.59706100E-05
    7.59706100E-05  7.59706100E-05  7.59706100E-05  7.59706100E-05  7.59706100E-05  7.59706100E-05  7.59706100E-05  7.59706100E-05  7.59706100E-05  7.59706100E-05  7.59706100E-05  7.59706100E-05  7.59706100E-05  7.59706100E-05  7.59706100E-05  7.59706100E-05  7.59706100E-05  7.59706100E-05  7.59706100E-05  7.59706100E-05
    7.59706100E-05  7.59706100E-05  7.59706100E-05  7.59706100E-05  7.59706100E-05  7.59706100E-05  7.59706100E-05  7.59706100E-05  7.59706100E-05  7.59706100E-05  7.59706100E-05  7.59706100E-05  7.59706100E-05  7.59706100E-05  7.59706100E-05  7.59706100E-05  7.59706100E-05  7.59706100E-05  7.59706100E-05  7.59706100E-05
    7.59706100E-05  7.59706100E-05  7.59706100E-05  7.59706100E-05  7.59706100E-05  7.59706100E-05  7.59706100E-05  7.59706100E-05  7.59706100E-05  7.59706100E-05  7.59706100E-05  7.59706100E-05  7.59706100E-05  7.59706100E-05  7.59706100E-05  7.59706100E-05  7.59706100E-05  7.59706100E-05  7.59706100E-05  7.59706100E-05
    7.59706100E-05  7.59706100E-05  7.59706100E-05  7.59706100E-05  7.59706100E-05  7.59706100E-05  7.59706100E-05  7.59706100E-05  7.59706100E-05  7.59706100E-05  7.59706100E-05  7.59706100E-05  7.59706100E-05  7.59706100E-05  7.59706100E-05  7.59706100E-05  7.59706100E-05  7.59706100E-05  7.59706100E-05  7.59706100E-05
    7.59706100E-05  7.59706100E-05  7.59706100E-05  7.59706100E-05  7.59706100E-05  7.59706100E-05  7.59706100E-05  7.59706100E-05  7.59706100E-05  7.59706100E-05  7.59706100E-05  7.59706100E-05  7.59706100E-05  7.59706100E-05  7.59706100E-05  7.59706100E-05  7.59706100E-05  7.59706100E-05  7.59706100E-05  7.59706100E-05
    7.59706100E-05  7.59706100E-05  7.59706100E-05  7.59706100E-05  7.59706100E-05  7.59706100E-05  7.59706100E-05  7.59706100E-05  7.59706100E-05  7.59706100E-05  7.59706100E-05  7.59706100E-05  7.59706100E-05  7.59706100E-05  7.59706100E-05  7.59706100E-05  7.59706100E-05  7.59706100E-05  7.59706100E-05  7.59706100E-05
    7.59706100E-05  7.59706100E-05  7.59706100E-05  7.59706100E-05  7.59706100E-05  7.59706100E-05  7.59706100E-05  7.59706100E-05  7.59706100E-05  7.59706100E-05  7.59706100E-05  7.59706100E-05  7.59706100E-05  7.59706100E-05  7.59706100E-05  7.59706100E-05  7.59706100E-05  7.59706100E-05  7.59706100E-05  7.59706100E-05
    7.59706100E-05  7.59706100E-05  7.59706100E-05  7.59706100E-05  7.59706100E-05  7.59706100E-05  7.59706100E-05  7.59706100E-05  7.59706100E-05  7.59706100E-05  7.59706100E-05  7.59706100E-05  7.59706100E-05  7.59706100E-05  7.59706100E-05  7.59706100E-05  7.59706100E-05  7.59706100E-05  7.59706100E-05  7.59706100E-05
    7.59706100E-05  7.59706100E-05  7.59706100E-05  7.59706100E-05  7.59706100E-05  7.59706100E-05  7.59706100E-05  7.59706100E-05  7.59706100E-05  7.59706100E-05  7.59706100E-05  7.59706100E-05  7.59706100E-05  7.59706100E-05  7.59706100E-05  7.59706100E-05  7.59706100E-05  7.59706100E-05  7.59706100E-05  7.59706100E-05
    7.59706100E-05  7.59706100E-05  7.59706100E-05  7.59706100E-05  7.59706100E-05  7.59706100E-05  7.59706100E-05  7.59706100E-05  7.59706100E-05  7.59706100E-05  7.59706100E-05  7.59706100E-05  7.59706100E-05  7.59706100E-05  7.59706100E-05  7.59706100E-05  7.59706100E-05  7.59706100E-05  7.59706100E-05  7.59706100E-05
    7.59706100E-05  7.59706100E-05  7.59706100E-05  7.59706100E-05  7.59706100E-05  7.59706100E-05  7.59706100E-05  7.59706100E-05  7.59706100E-05  7.59706100E-05  7.59706100E-05  7.59706100E-05  7.59706100E-05  7.59706100E-05  7.59706100E-05  7.59706100E-05  7.59706100E-05  7.59706100E-05  7.59706100E-05  7.59706100E-05
    7.59706100E-05  7.59706100E-05  7.59706100E-05  7.59706100E-05  7.59706100E-05  7.59706100E-05  7.59706100E-05  7.59706100E-05  7.59706100E-05  7.59706100E-05  7.59706100E-05  7.59706100E-05  7.59706100E-05  7.59706100E-05  7.59706100E-05  7.59706100E-05  7.59706100E-05  7.59706100E-05  7.59706100E-05  7.59706100E-05
    7.59706100E-05  7.59706100E-05  7.59706100E-05  7.59706100E-05  7.59706100E-05  7.59706100E-05  7.59706100E-05  7.59706100E-05  7.59706100E-05  7.59706100E-05  7.59706100E-05  7.59706100E-05  7.59706100E-05  7.59706100E-05  7.59706100E-05  7.59706100E-05  7.59706100E-05  7.59706100E-05  7.59706100E-05  7.59706100E-05
    7.59706100E-05  7.59706100E-05  7.59706100E-05  7.59706100E-05  7.59706100E-05  7.59706100E-05  7.59706100E-05  7.59706100E-05  7.59706100E-05  7.59706100E-05  7.59706100E-05  7.59706100E-05  7.59706100E-05  7.59706100E-05  7.59706100E-05  7.59706100E-05  7.59706100E-05  7.59706100E-05  7.59706100E-05  7.59706100E-05
    7.59706100E-05  7.59706100E-05  7.59706100E-05  7.59706100E-05  7.59706100E-05  7.59706100E-05  7.59706100E-05  7.59706100E-05  7.59706100E-05  7.59706100E-05  7.59706100E-05  7.59706100E-05  7.59706100E-05  7.59706100E-05  7.59706100E-05  7.59706100E-05  7.59706100E-05  7.59706100E-05  7.59706100E-05  7.59706100E-05
    7.59706100E-05  7.59706100E-05  7.59706100E-05  7.59706100E-05  7.59706100E-05  7.59706100E-05  7.59706100E-05  7.59706100E-05  7.59706100E-05  7.59706100E-05  7.59706100E-05  7.59706100E-05  7.59706100E-05  7.59706100E-05  7.59706100E-05  7.59706100E-05  7.59706100E-05  7.59706100E-05  7.59706100E-05  7.59706100E-05
    7.59706100E-05  7.59706100E-05  7.59706100E-05  7.59706100E-05  7.59706100E-05  7.59706100E-05  7.59706100E-05  7.59706100E-05  7.59706100E-05  7.59706100E-05  7.59706100E-05  7.59706100E-05  7.59706100E-05  7.59706100E-05  7.59706100E-05  7.59706100E-05  7.59706100E-05  7.59706100E-05  7.59706100E-05  7.59706100E-05
    7.59706100E-05  7.59706100E-05  7.59706100E-05  7.59706100E-05  7.59706100E-05  7.59706100E-05  7.59706100E-05  7.59706100E-05  7.59706100E-05  7.59706100E-05  7.59706100E-05  7.59706100E-05  7.59706100E-05  7.59706100E-05  7.59706100E-05  7.59706100E-05  7.59706100E-05  7.59706100E-05  7.59706100E-05  7.59706100E-05
    7.59706100E-05  7.59706100E-05  7.59706100E-05  7.59706100E-05  7.59706100E-05  7.59706100E-05  7.59706100E-05  7.59706100E-05  7.59706100E-05  7.59706100E-05  7.59706100E-05  7.59706100E-05  7.59706100E-05  7.59706100E-05  7.59706100E-05  7.59706100E-05  7.59706100E-05  7.59706100E-05  7.59706100E-05  7.59706100E-05
    7.59706100E-05  7.59706100E-05  7.59706100E-05  7.59706100E-05  7.59706100E-05  7.59706100E-05  7.59706100E-05  7.59706100E-05  7.59706100E-05  7.59706100E-05  7.59706100E-05  7.59706100E-05  7.59706100E-05  7.59706100E-05  7.59706100E-05  7.59706100E-05  7.59706100E-05  7.59706100E-05  7.59706100E-05  7.59706100E-05
    7.59706100E-05  7.59706100E-05  7.59706100E-05  7.59706100E-05  7.59706100E-05  7.59706100E-05  7.59706100E-05  7.59706100E-05  7.59706100E-05  7.59706100E-05  7.59706100E-05  7.59706100E-05  7.59706100E-05  7.59706100E-05  7.59706100E-05  7.59706100E-05  7.59706100E-05  7.59706100E-05  7.59706100E-05  7.59706100E-05
    7.59706100E-05  7.59706100E-05  7.59706100E-05  7.59706100E-05  7.59706100E-05  7.59706100E-05  7.59706100E-05  7.59706100E-05  7.59706100E-05  7.59706100E-05  7.59706100E-05  7.59706100E-05  7.59706100E-05  7.59706100E-05  7.59706100E-05  7.59706100E-05  7.59706100E-05  7.59706100E-05  7.59706100E-05  7.59706100E-05
    7.59706100E-05  7.59706100E-05  7.59706100E-05  7.59706100E-05  7.59706100E-05  7.59706100E-05  7.59706100E-05  7.59706100E-05  7.59706100E-05  7.59706100E-05  7.59706100E-05  7.59706100E-05  7.59706100E-05  7.59706100E-05  7.59706100E-05  7.59706100E-05  7.59706100E-05  7.59706100E-05  7.59706100E-05  7.59706100E-05
    7.59706100E-05  7.59706100E-05  7.59706100E-05  7.59706100E-05  7.59706100E-05  7.59706100E-05  7.59706100E-05  7.59706100E-05  7.59706100E-05  7.59706100E-05  7.59706100E-05  7.59706100E-05  7.59706100E-05  7.59706100E-05  7.59706100E-05  7.59706100E-05  7.59706100E-05  7.59706100E-05  7.59706100E-05  7.59706100E-05
    7.59706100E-05  7.59706100E-05  7.59706100E-05  7.59706100E-05  7.59706100E-05  7.59706100E-05  7.59706100E-05  7.59706100E-05  7.59706100E-05  7.59706100E-05  7.59706100E-05  7.59706100E-05  7.59706100E-05  7.59706100E-05  7.59706100E-05  7.59706100E-05  7.59706100E-05  7.59706100E-05  7.59706100E-05  7.59706100E-05
    7.59706100E-05  7.59706100E-05  7.59706100E-05  7.59706100E-05  7.59706100E-05  7.59706100E-05  7.59706100E-05  7.59706100E-05  7.59706100E-05  7.59706100E-05  7.59706100E-05  7.59706100E-05  7.59706100E-05  7.59706100E-05  7.59706100E-05  7.59706100E-05  7.59706100E-05  7.59706100E-05  7.59706100E-05  7.59706100E-05
    7.59706100E-05  7.59706100E-05  7.59706100E-05  7.59706100E-05  7.59706100E-05  7.59706100E-05  7.59706100E-05  7.59706100E-05  7.59706100E-05  7.59706100E-05  7.59706100E-05  7.59706100E-05  7.59706100E-05  7.59706100E-05  7.59706100E-05  7.59706100E-05  7.59706100E-05  7.59706100E-05  7.59706100E-05  7.59706100E-05
    7.59706100E-05  7.59706100E-05  7.59706100E-05  7.59706100E-05  7.59706100E-05  7.59706100E-05  7.59706100E-05  7.59706100E-05  7.59706100E-05  7.59706100E-05  7.59706100E-05  7.59706100E-05  7.59706100E-05  7.59706100E-05  7.59706100E-05  7.59706100E-05  7.59706100E-05  7.59706100E-05  7.59706100E-05  7.59706100E-05
    7.59706100E-05  7.59706100E-05  7.59706100E-05  7.59706100E-05  7.59706100E-05  7.59706100E-05  7.59706100E-05  7.59706100E-05  7.59706100E-05  7.59706100E-05  7.59706100E-05  7.59706100E-05  7.59706100E-05  7.59706100E-05  7.59706100E-05  7.59706100E-05  7.59706100E-05  7.59706100E-05  7.59706100E-05  7.59706100E-05
END PERIOD  1

BEGIN PERIOD  2
  recharge
    INTERNAL  FACTOR  1.0
    8.90982000E-05  8.90982000E-05  8.90982000E-05  8.90982000E-05  8.90982000E-05  8.90982000E-05  8.90982000E-05  8.90982000E-05  8.90982000E-05  8.90982000E-05  8.90982000E-05  8.90982000E-05  8.90982000E-05  8.90982000E-05  8.90982000E-05  8.90982000E-05  8.90982000E-05  8.90982000E-05  8.90982000E-05  8.90982000E-05
    8.90982000E-05  8.90982000E-05  8.90982000E-05  8.90982000E-05  8.90982000E-05  8.90982000E-05  8.90982000E-05  8.90982000E-05  8.90982000E-05  8.90982000E-05  8.90982000E-05  8.90982000E-05  8.90982000E-05  8.90982000E-05  8.90982000E-05  8.90982000E-05  8.90982000E-05  8.90982000E-05  8.90982000E-05  8.90982000E-05
    8.90982000E-05  8.90982000E-05  8.90982000E-05  8.90982000E-05  8.90982000E-05  8.90982000E-05  8.90982000E-05  8.90982000E-05  8.90982000E-05  8.90982000E-05  8.90982000E-05  8.90982000E-05  8.90982000E-05  8.90982000E-05  8.90982000E-05  8.90982000E-05  8.90982000E-05  8.90982000E-05  8.90982000E-05  8.90982000E-05
    8.90982000E-05  8.90982000E-05  8.90982000E-05  8.90982000E-05  8.90982000E-05  8.90982000E-05  8.90982000E-05  8.90982000E-05  8.90982000E-05  8.90982000E-05  8.90982000E-05  8.90982000E-05  8.90982000E-05  8.90982000E-05  8.90982000E-05  8.90982000E-05  8.90982000E-05  8.90982000E-05  8.90982000E-05  8.90982000E-05
    8.90982000E-05  8.90982000E-05  8.90982000E-05  8.90982000E-05  8.90982000E-05  8.90982000E-05  8.90982000E-05  8.90982000E-05  8.90982000E-05  8.90982000E-05  8.90982000E-05  8.90982000E-05  8.90982000E-05  8.90982000E-05  8.90982000E-05  8.90982000E-05  8.90982000E-05  8.90982000E-05  8.90982000E-05  8.90982000E-05
    8.90982000E-05  8.90982000E-05  8.90982000E-05  8.90982000E-05  8.90982000E-05  8.90982000E-05  8.90982000E-05  8.90982000E-05  8.90982000E-05  8.90982000E-05  8.90982000E-05  8.90982000E-05  8.90982000E-05  8.90982000E-05  8.90982000E-05  8.90982000E-05  8.90982000E-05  8.90982000E-05  8.90982000E-05  8.90982000E-05
    8.90982000E-05  8.90982000E-05  8.90982000E-05  8.90982000E-05  8.90982000E-05  8.90982000E-05  8.90982000E-05  8.90982000E-05  8.90982000E-05  8.90982000E-05  8.90982000E-05  8.90982000E-05  8.90982000E-05  8.90982000E-05  8.90982000E-05  8.90982000E-05  8.90982000E-05  8.90982000E-05  8.90982000E-05  8.90982000E-05
    8.90982000E-05  8.90982000E-05  8.90982000E-05  8.90982000E-05  8.90982000E-05  8.90982000E-05  8.90982000E-05  8.90982000E-05  8.90982000E-05  8.90982000E-05  8.90982000E-05  8.90982000E-05  8.90982000E-05  8.90982000E-05  8.90982000E-05  8.90982000E-05  8.90982000E-05  8.90982000E-05  8.90982000E-05  8.90982000E-05
    8.90982000E-05  8.90982000E-05  8.90982000E-05  8.90982000E-05  8.90982000E-05  8.90982000E-05  8.90982000E-05  8.90982000E-05  8.90982000E-05  8.90982000E-05  8.90982000E-05  8.90982000E-05  8.90982000E-05  8.90982000E-05  8.90982000E-05  8.90982000E-05  8.90982000E-05  8.90982000E-05  8.90982000E-05  8.90982000E-05
    8.90982000E-05  8.90982000E-05  8.90982000E-05  8.90982000E-05  8.90982000E-05  8.90982000E-05  8.90982000E-05  8.90982000E-05  8.90982000E-05  8.90982000E-05  8.90982000E-05  8.90982000E-05  8.90982000E-05  8.90982000E-05  8.90982000E-05  8.90982000E-05  8.90982000E-05  8.90982000E-05  8.90982000E-05  8.90982000E-05
    8.90982000E-05  8.90982000E-05  8.90982000E-05  8.90982000E-05  8.90982000E-05  8.90982000E-05  8.90982000E-05  8.90982000E-05  8.90982000E-05  8.90982000E-05  8.90982000E-05  8.90982000E-05  8.90982000E-05  8.90982000E-05  8.90982000E-05  8.90982000E-05  8.90982000E-05  8.90982000E-05  8.90982000E-05  8.90982000E-05
    8.90982000E-05  8.90982000E-05  8.90982000E-05  8.90982000E-05  8.90982000E-05  8.90982000E-05  8.90982000E-05  8.90982000E-05  8.90982000E-05  8.90982000E-05  8.90982000E-05  8.90982000E-05  8.90982000E-05  8.90982000E-05  8.90982000E-05  8.90982000E-05  8.90982000E-05  8.90982000E-05  8.90982000E-05  8.90982000E-05
    8.90982000E-05  8.90982000E-05  8.90982000E-05  8.90982000E-05  8.90982000E-05  8.90982000E-05  8.90982000E-05  8.90982000E-05  8.90982000E-05  8.90982000E-05  8.90982000E-05  8.90982000E-05  8.90982000E-05  8.90982000E-05  8.90982000E-05  8.90982000E-05  8.90982000E-05  8.90982000E-05  8.90982000E-05  8.90982000E-05
    8.90982000E-05  8.90982000E-05  8.90982000E-05  8.90982000E-05  8.90982000E-05  8.90982000E-05  8.90982000E-05  8.90982000E-05  8.90982000E-05  8.90982000E-05  8.90982000E-05  8.90982000E-05  8.90982000E-05  8.90982000E-05  8.90982000E-05  8.90982000E-05  8.90982000E-05  8.90982000E-05  8.90982000E-05  8.90982000E-05
    8.90982000E-05  8.90982000E-05  8.90982000E-05  8.90982000E-05  8.90982000E-05  8.90982000E-05  8.90982000E-05  8.90982000E-05  8.90982000E-05  8.90982000E-05  8.90982000E-05  8.90982000E-05  8.90982000E-05  8.90982000E-05  8.90982000E-05  8.90982000E-05  8.90982000E-05  8.90982000E-05  8.90982000E-05  8.90982000E-05
    8.90982000E-05  8.90982000E-05  8.90982000E-05  8.90982000E-05  8.90982000E-05  8.90982000E-05  8.90982000E-05  8.90982000E-05  8.90982000E-05  8.90982000E-05  8.90982000E-05  8.90982000E-05  8.90982000E-05  8.90982000E-05  8.90982000E-05  8.90982000E-05  8.90982000E-05  8.90982000E-05  8.90982000E-05  8.90982000E-05
    8.90982000E-05  8.90982000E-05  8.90982000E-05  8.90982000E-05  8.90982000E-05  8.90982000E-05  8.90982000E-05  8.90982000E-05  8.90982000E-05  8.90982000E-05  8.90982000E-05  8.90982000E-05  8.90982000E-05  8.90982000E-05  8.90982000E-05  8.90982000E-05  8.90982000E-05  8.90982000E-05  8.90982000E-05  8.90982000E-05
    8.90982000E-05  8.90982000E-05  8.90982000E-05  8.90982000E-05  8.90982000E-05  8.90982000E-05  8.90982000E-05  8.90982000E-05  8.90982000E-05  8.90982000E-05  8.90982000E-05  8.90982000E-05  8.90982000E-05  8.90982000E-05  8.90982000E-05  8.90982000E-05  8.90982000E-05  8.90982000E-05  8.90982000E-05  8.90982000E-05
    8.90982000E-05  8.90982000E-05  8.90982000E-05  8.90982000E-05  8.90982000E-05  8.90982000E-05  8.90982000E-05  8.90982000E-05  8.90982000E-05  8.90982000E-05  8.90982000E-05  8.90982000E-05  8.90982000E-05  8.90982000E-05  8.90982000E-05  8.90982000E-05  8.90982000E-05  8.90982000E-05  8.90982000E-05  8.90982000E-05
    8.90982000E-05  8.90982000E-05  8.90982000E-05  8.90982000E-05  8.90982000E-05  8.90982000E-05  8.90982000E-05  8.90982000E-05  8.90982000E-05  8.90982000E-05  8.90982000E-05  8.90982000E-05  8.90982000E-05  8.90982000E-05  8.90982000E-05  8.90982000E-05  8.90982000E-05  8.90982000E-05  8.90982000E-05  8.90982000E-05
    8.90982000E-05  8.90982000E-05  8.90982000E-05  8.90982000E-05  8.90982000E-05  8.90982000E-05  8.90982000E-05  8.90982000E-05  8.90982000E-05  8.90982000E-05  8.90982000E-05  8.90982000E-05  8.90982000E-05  8.90982000E-05  8.90982000E-05  8.90982000E-05  8.90982000E-05  8.90982000E-05  8.90982000E-05  8.90982000E-05
    8.90982000E-05  8.90982000E-05  8.90982000E-05  8.90982000E-05  8.90982000E-05  8.90982000E-05  8.90982000E-05  8.90982000E-05  8.90982000E-05  8.90982000E-05  8.90982000E-05  8.90982000E-05  8.90982000E-05  8.90982000E-05  8.90982000E-05  8.90982000E-05  8.90982000E-05  8.90982000E-05  8.90982000E-05  8.90982000E-05
    8.90982000E-05  8.90982000E-05  8.90982000E-05  8.90982000E-05  8.90982000E-05  8.90982000E-05  8.90982000E-05  8.90982000E-05  8.90982000E-05  8.90982000E-05  8.90982000E-05  8.90982000E-05  8.90982000E-05  8.90982000E-05  8.90982000E-05  8.90982000E-05  8.90982000E-05  8.90982000E-05  8.90982000E-05  8.90982000E-05
    8.90982000E-05  8.90982000E-05  8.90982000E-05  8.90982000E-05  8.90982000E-05  8.90982000E-05  8.90982000E-05  8.90982000E-05  8.90982000E-05  8.90982000E-05  8.90982000E-05  8.90982000E-05  8.90982000E-05  8.90982000E-05  8.90982000E-05  8.90982000E-05  8.90982000E-05  8.90982000E-05  8.90982000E-05  8.90982000E-05
    8.90982000E-05  8.90982000E-05  8.90982000E-05  8.90982000E-05  8.90982000E-05  8.90982000E-05  8.90982000E-05  8.90982000E-05  8.90982000E-05  8.90982000E-05  8.90982000E-05  8.90982000E-05  8.90982000E-05  8.90982000E-05  8.90982000E-05  8.90982000E-05  8.90982000E-05  8.90982000E-05  8.90982000E-05  8.90982000E-05
    8.90982000E-05  8.90982000E-05  8.90982000E-05  8.90982000E-05  8.90982000E-05  8.90982000E-05  8.90982000E-05  8.90982000E-05  8.90982000E-05  8.90982000E-05  8.90982000E-05  8.90982000E-05  8.90982000E-05  8.90982000E-05  8.90982000E-05  8.90982000E-05  8.90982000E-05  8.90982000E-05  8.90982000E-05  8.90982000E-05
    8.90982000E-05  8.90982000E-05  8.90982000E-05  8.90982000E-05  8.90982000E-05  8.90982000E-05  8.90982000E-05  8.90982000E-05  8.90982000E-05  8.90982000E-05  8.90982000E-05  8.90982000E-05  8.90982000E-05  8.90982000E-05  8.90982000E-05  8.90982000E-05  8.90982000E-05  8.90982000E-05  8.90982000E-05  8.90982000E-05
    8.90982000E-05  8.90982000E-05  8.90982000E-05  8.90982000E-05  8.90982000E-05  8.90982000E-05  8.90982000E-05  8.90982000E-05  8.90982000E-05  8.90982000E-05  8.90982000E-05  8.90982000E-05  8.90982000E-05  8.90982000E-05  8.90982000E-05  8.90982000E-05  8.90982000E-05  8.90982000E-05  8.90982000E-05  8.90982000E-05
    8.90982000E-05  8.90982000E-05  8.90982000E-05  8.90982000E-05  8.90982000E-05  8.90982000E-05  8.90982000E-05  8.90982000E-05  8.90982000E-05  8.90982000E-05  8.90982000E-05  8.90982000E-05  8.90982000E-05  8.90982000E-05  8.90982000E-05  8.90982000E-05  8.90982000E-05  8.90982000E-05  8.90982000E-05  8.90982000E-05
    8.90982000E-05  8.90982000E-05  8.90982000E-05  8.90982000E-05  8.90982000E-05  8.90982000E-05  8.90982000E-05  8.90982000E-05  8.90982000E-05  8.90982000E-05  8.90982000E-05  8.90982000E-05  8.90982000E-05  8.90982000E-05  8.90982000E-05  8.90982000E-05  8.90982000E-05  8.90982000E-05  8.90982000E-05  8.90982000E-05
    8.90982000E-05  8.90982000E-05  8.90982000E-05  8.90982000E-05  8.90982000E-05  8.90982000E-05  8.90982000E-05  8.90982000E-05  8.90982000E-05  8.90982000E-05  8.90982000E-05  8.90982000E-05  8.90982000E-05  8.90982000E-05  8.90982000E-05  8.90982000E-05  8.90982000E-05  8.90982000E-05  8.90982000E-05  8.90982000E-05
    8.90982000E-05  8.90982000E-05  8.90982000E-05  8.90982000E-05  8.90982000E-05  8.90982000E-05  8.90982000E-05  8.90982000E-05  8.90982000E-05  8.90982000E-05  8.90982000E-05  8.90982000E-05  8.90982000E-05  8.90982000E-05  8.90982000E-05  8.90982000E-05  8.90982000E-05  8.90982000E-05  8.90982000E-05  8.90982000E-05
    8.90982000E-05  8.90982000E-05  8.90982000E-05  8.90982000E-05  8.90982000E-05  8.90982000E-05  8.90982000E-05  8.90982000E-05  8.90982000E-05  8.90982000E-05  8.90982000E-05  8.90982000E-05  8.90982000E-05  8.90982000E-05  8.90982000E-05  8.90982000E-05  8.90982000E-05  8.90982000E-05  8.90982000E-05  8.90982000E-05
    8.90982000E-05  8.90982000E-05  8.90982000E-05  8.90982000E-05  8.90982000E-05  8.90982000E-05  8.90982000E-05  8.90982000E-05  8.90982000E-05  8.90982000E-05  8.90982000E-05  8.90982000E-05  8.90982000E-05  8.90982000E-05  8.90982000E-05  8.90982000E-05  8.90982000E-05  8.90982000E-05  8.90982000E-05  8.90982000E-05
    8.90982000E-05  8.90982000E-05  8.90982000E-05  8.90982000E-05  8.90982000E-05  8.90982000E-05  8.90982000E-05  8.90982000E-05  8.90982000E-05  8.90982000E-05  8.90982000E-05  8.90982000E-05  8.90982000E-05  8.90982000E-05  8.90982000E-05  8.90982000E-05  8.90982000E-05  8.90982000E-05  8.90982000E-05  8.90982000E-05
    8.90982000E-05  8.90982000E-05  8.90982000E-05  8.90982000E-05  8.90982000E-05  8.90982000E-05  8.90982000E-05  8.90982000E-05  8.90982000E-05  8.90982000E-05  8.90982000E-05  8.90982000E-05  8.90982000E-05  8.90982000E-05  8.90982000E-05  8.90982000E-05  8.90982000E-05  8.90982000E-05  8.90982000E-05  8.90982000E-05
    8.90982000E-05  8.90982000E-05  8.90982000E-05  8.90982000E-05  8.90982000E-05  8.90982000E-05  8.90982000E-05  8.90982000E-05  8.90982000E-05  8.90982000E-05  8.90982000E-05  8.90982000E-05  8.90982000E-05  8.90982000E-05  8.90982000E-05  8.90982000E-05  8.90982000E-05  8.90982000E-05  8.90982000E-05  8.90982000E-05
    8.90982000E-05  8.90982000E-05  8.90982000E-05  8.90982000E-05  8.90982000E-05  8.90982000E-05  8.90982000E-05  8.90982000E-05  8.90982000E-05  8.90982000E-05  8.90982000E-05  8.90982000E-05  8.90982000E-05  8.90982000E-05  8.90982000E-05  8.90982000E-05  8.90982000E-05  8.90982000E-05  8.90982000E-05  8.90982000E-05
    8.90982000E-05  8.90982000E-05  8.90982000E-05  8.90982000E-05  8.90982000E-05  8.90982000E-05  8.90982000E-05  8.90982000E-05  8.90982000E-05  8.90982000E-05  8.90982000E-05  8.90982000E-05  8.90982000E-05  8.90982000E-05  8.90982000E-05  8.90982000E-05  8.90982000E-05  8.90982000E-05  8.90982000E-05  8.90982000E-05
    8.90982000E-05  8.90982000E-05  8.90982000E-05  8.90982000E-05  8.90982000E-05  8.90982000E-05  8.90982000E-05  8.90982000E-05  8.90982000E-05  8.90982000E-05  8.90982000E-05  8.90982000E-05  8.90982000E-05  8.90982000E-05  8.90982000E-05  8.90982000E-05  8.90982000E-05  8.90982000E-05  8.90982000E-05  8.90982000E-05
END PERIOD  2

BEGIN PERIOD  3
  recharge
    INTERNAL  FACTOR  1.0
    1.20958500E-04  1.20958500E-04  1.20958500E-04  1.20958500E-04  1.20958500E-04  1.20958500E-04  1.20958500E-04  1.20958500E-04  1.20958500E-04  1.20958500E-04  1.20958500E-04  1.20958500E-04  1.20958500E-04  1.20958500E-04  1.20958500E-04  1.20958500E-04  1.20958500E-04  1.20958500E-04  1.20958500E-04  1.20958500E-04
    1.20958500E-04  1.20958500E-04  1.20958500E-04  1.20958500E-04  1.20958500E-04  1.20958500E-04  1.20958500E-04  1.20958500E-04  1.20958500E-04  1.20958500E-04  1.20958500E-04  1.20958500E-04  1.20958500E-04  1.20958500E-04  1.20958500E-04  1.20958500E-04  1.20958500E-04  1.20958500E-04  1.20958500E-04  1.20958500E-04
    1.20958500E-04  1.20958500E-04  1.20958500E-04  1.20958500E-04  1.20958500E-04  1.20958500E-04  1.20958500E-04  1.20958500E-04  1.20958500E-04  1.20958500E-04  1.20958500E-04  1.20958500E-04  1.20958500E-04  1.20958500E-04  1.20958500E-04  1.20958500E-04  1.20958500E-04  1.20958500E-04  1.20958500E-04  1.20958500E-04
    1.20958500E-04  1.20958500E-04  1.20958500E-04  1.20958500E-04  1.20958500E-04  1.20958500E-04  1.20958500E-04  1.20958500E-04  1.20958500E-04  1.20958500E-04  1.20958500E-04  1.20958500E-04  1.20958500E-04  1.20958500E-04  1.20958500E-04  1.20958500E-04  1.20958500E-04  1.20958500E-04  1.20958500E-04  1.20958500E-04
    1.20958500E-04  1.20958500E-04  1.20958500E-04  1.20958500E-04  1.20958500E-04  1.20958500E-04  1.20958500E-04  1.20958500E-04  1.20958500E-04  1.20958500E-04  1.20958500E-04  1.20958500E-04  1.20958500E-04  1.20958500E-04  1.20958500E-04  1.20958500E-04  1.20958500E-04  1.20958500E-04  1.20958500E-04  1.20958500E-04
    1.20958500E-04  1.20958500E-04  1.20958500E-04  1.20958500E-04  1.20958500E-04  1.20958500E-04  1.20958500E-04  1.20958500E-04  1.20958500E-04  1.20958500E-04  1.20958500E-04  1.20958500E-04  1.20958500E-04  1.20958500E-04  1.20958500E-04  1.20958500E-04  1.20958500E-04  1.20958500E-04  1.20958500E-04  1.20958500E-04
    1.20958500E-04  1.20958500E-04  1.20958500E-04  1.20958500E-04  1.20958500E-04  1.20958500E-04  1.20958500E-04  1.20958500E-04  1.20958500E-04  1.20958500E-04  1.20958500E-04  1.20958500E-04  1.20958500E-04  1.20958500E-04  1.20958500E-04  1.20958500E-04  1.20958500E-04  1.20958500E-04  1.20958500E-04  1.20958500E-04
    1.20958500E-04  1.20958500E-04  1.20958500E-04  1.20958500E-04  1.20958500E-04  1.20958500E-04  1.20958500E-04  1.20958500E-04  1.20958500E-04  1.20958500E-04  1.20958500E-04  1.20958500E-04  1.20958500E-04  1.20958500E-04  1.20958500E-04  1.20958500E-04  1.20958500E-04  1.20958500E-04  1.20958500E-04  1.20958500E-04
    1.20958500E-04  1.20958500E-04  1.20958500E-04  1.20958500E-04  1.20958500E-04  1.20958500E-04  1.20958500E-04  1.20958500E-04  1.20958500E-04  1.20958500E-04  1.20958500E-04  1.20958500E-04  1.20958500E-04  1.20958500E-04  1.20958500E-04  1.20958500E-04  1.20958500E-04  1.20958500E-04  1.20958500E-04  1.20958500E-04
    1.20958500E-04  1.20958500E-04  1.20958500E-04  1.20958500E-04  1.20958500E-04  1.20958500E-04  1.20958500E-04  1.20958500E-04  1.20958500E-04  1.20958500E-04  1.20958500E-04  1.20958500E-04  1.20958500E-04  1.20958500E-04  1.20958500E-04  1.20958500E-04  1.20958500E-04  1.20958500E-04  1.20958500E-04  1.20958500E-04
    1.20958500E-04  1.20958500E-04  1.20958500E-04  1.20958500E-04  1.20958500E-04  1.20958500E-04  1.20958500E-04  1.20958500E-04  1.20958500E-04  1.20958500E-04  1.20958500E-04  1.20958500E-04  1.20958500E-04  1.20958500E-04  1.20958500E-04  1.20958500E-04  1.20958500E-04  1.20958500E-04  1.20958500E-04  1.20958500E-04