# File generated by Flopy version 3.5.0.dev0 on 10/09/2023 at 14:30:13.
BEGIN Options
  PRINT_INPUT
  PRINT_FLOWS
  SAVE_FLOWS
END Options

BEGIN Dimensions
  MAXBOUND  7
END Dimensions

BEGIN PERIOD  1
  1 10 17    -150.00000000
  1 12 14    -150.00000000
  1 21 15    -150.00000000
  1 27 11    -150.00000000
  1 30 7    -150.00000000
  1 35 13    -150.00000000
  1 25 5       0.00000000
END PERIOD  1

BEGIN PERIOD  2
  1 10 17    -300.00000000
  1 12 14    -300.00000000
  1 21 15    -300.00000000
  1 27 11    -300.00000000
  1 30 7    -300.00000000
  1 35 13    -300.00000000
  1 25 5       0.00000000
END PERIOD  2

BEGIN PERIOD  3
  1 10 17    -300.00000000
  1 12 14    -300.00000000
  1 21 15    -300.00000000
  1 27 11    -300.00000000
  1 30 7    -300.00000000
  1 35 13    -300.00000000
  1 25 5       0.00000000
END PERIOD  3

BEGIN PERIOD  4
  1 10 17    -300.00000000
  1 12 14    -300.00000000
  1 21 15    -300.00000000
  1 27 11    -300.00000000
  1 30 7    -300.00000000
  1 35 13    -300.00000000
  1 25 5       0.00000000
END PERIOD  4

BEGIN PERIOD  5
  1 10 17    -300.00000000
  1 12 14    -300.00000000
  1 21 15    -300.00000000
  1 27 11    -300.00000000
  1 30 7    -300.00000000
  1 35 13    -300.00000000
  1 25 5       0.00000000
END PERIOD  5

BEGIN PERIOD  6
  1 10 17    -300.00000000
  1 12 14    -300.00000000
  1 21 15    -300.00000000
  1 27 11    -300.00000000
  1 30 7    -300.00000000
  1 35 13    -300.00000000
  1 25 5       0.00000000
END PERIOD  6

BEGIN PERIOD  7
  1 10 17    -300.00000000
  1 12 14    -300.00000000
  1 21 15    -300.00000000
  1 27 11    -300.00000000
  1 30 7    -300.00000000
  1 35 13    -300.00000000
  1 25 5       0.00000000
END PERIOD  7

BEGIN PERIOD  8
  1 10 17    -300.00000000
  1 12 14    -300.00000000
  1 21 15    -300.00000000
  1 27 11    -300.00000000
  1 30 7    -300.00000000
  1 35 13    -300.00000000
  1 25 5       0.00000000
END PERIOD  8

BEGIN PERIOD  9
  1 10 17    -300.00000000
  1 12 14    -300.00000000
  1 21 15    -300.00000000
  1 27 11    -300.00000000
  1 30 7    -300.00000000
  1 35 13    -300.00000000
  1 25 5       0.00000000
END PERIOD  9

BEGIN PERIOD  10
  1 10 17    -300.00000000
  1 12 14    -300.00000000
  1 21 15    -300.00000000
  1 27 11    -300.00000000
  1 30 7    -300.00000000
  1 35 13    -300.00000000
  1 25 5       0.00000000
END PERIOD  10

BEGIN PERIOD  11
  1 10 17    -300.00000000
  1 12 14    -300.00000000
  1 21 15    -300.00000000
  1 27 11    -300.00000000
  1 30 7    -300.00000000
  1 35 13    -300.00000000
  1 25 5       0.00000000
END PERIOD  11

BEGIN PERIOD  12
  1 10 17    -300.00000000
  1 12 14    -300.00000000
  1 21 15    -300.00000000
  1 27 11    -300.00000000
  1 30 7    -300.00000000
  1 35 13    -300.00000000
  1 25 5    -550.00000000
END PERIOD  12

BEGIN PERIOD  13
  1 10 17    -300.00000000
  1 12 14    -300.00000000
  1 21 15    -300.00000000
  1 27 11    -300.00000000
  1 30 7    -300.00000000
  1 35 13    -300.00000000
  1 25 5    -550.00000000
END PERIOD  13

BEGIN PERIOD  14
  1 10 17    -300.00000000
  1 12 14    -300.00000000
  1 21 15    -300.00000000
  1 27 11    -300.00000000
  1 30 7    -300.00000000
  1 35 13    -300.00000000
  1 25 5    -550.00000000
END PERIOD  14

BEGIN PERIOD  15
  1 10 17    -300.00000000
  1 12 14    -300.00000000
  1 21 15    -300.00000000
  1 27 11    -300.00000000
  1 30 7    -300.00000000
  1 35 13    -300.00000000
  1 25 5    -550.00000000
END PERIOD  15

BEGIN PERIOD  16
  1 10 17    -300.00000000
  1 12 14    -300.00000000
  1 21 15    -300.00000000
  1 27 11    -300.00000000
  1 30 7    -300.00000000
  1 35 13    -300.00000000
  1 25 5    -550.00000000
END PERIOD  16

BEGIN PERIOD  17
  1 10 17    -300.00000000
  1 12 14    -300.00000000
  1 21 15    -300.00000000
  1 27 11    -300.00000000
  1 30 7    -300.00000000
  1 35 13    -300.00000000
  1 25 5    -550.00000000
END PERIOD  17

BEGIN PERIOD  18
  1 10 17    -300.00000000
  1 12 14    -300.00000000
  1 21 15    -300.00000000
  1 27 11    -300.00000000
  1 30 7    -300.00000000
  1 35 13    -300.00000000
  1 25 5    -550.00000000
END PERIOD  18

BEGIN PERIOD  19
  1 10 17    -300.00000000
  1 12 14    -300.00000000
  1 21 15    -300.00000000
  1 27 11    -300.00000000
  1 30 7    -300.00000000
  1 35 13    -300.00000000
  1 25 5    -550.00000000
END PERIOD  19

BEGIN PERIOD  20
  1 10 17    -300.00000000
  1 12 14    -300.00000000
  1 21 15    -300.00000000
  1 27 11    -300.00000000
  1 30 7    -300.00000000
  1 35 13    -300.00000000
  1 25 5    -550.00000000
END PERIOD  20

BEGIN PERIOD  21
  1 10 17    -300.00000000
  1 12 14    -300.00000000
  1 21 15    -300.00000000
  1 27 11    -300.00000000
  1 30 7    -300.00000000
  1 35 13    -300.00000000
  1 25 5    -550.00000000
END PERIOD  21

BEGIN PERIOD  22
  1 10 17    -300.00000000
  1 12 14    -300.00000000
  1 21 15    -300.00000000
  1 27 11    -300.00000000
  1 30 7    -300.00000000
  1 35 13    -300.00000000
  1 25 5    -550.00000000
END PERIOD  22

BEGIN PERIOD  23
  1 10 17    -300.00000000
  1 12 14    -300.00000000
  1 21 15    -300.00000000
  1 27 11    -300.00000000
  1 30 7    -300.00000000
  1 35 13    -300.00000000
  1 25 5    -550.00000000
END PERIOD  23

BEGIN PERIOD  24
  1 10 17    -300.00000000
  1 12 14    -300.00000000
  1 21 15    -300.00000000
  1 27 11    -300.00000000
  1 30 7    -300.00000000
  1 35 13    -300.00000000
  1 25 5    -550.00000000
END PERIOD  24

BEGIN PERIOD  25
  1 10 17    -300.00000000
  1 12 14    -300.00000000
  1 21 15    -300.00000000
  1 27 11    -300.00000000
  1 30 7    -300.00000000
  1 35 13    -300.00000000
  1 25 5    -550.00000000
END PERIOD  25

