# File generated by Flopy version 3.5.0.dev0 on 10/09/2023 at 14:30:13.
BEGIN GRIDDATA
  strt
    INTERNAL  FACTOR  1.0
        39.42979000      39.36169000      39.21803000      39.00288000      38.76951000      38.50444000      38.18007000      37.90016000      37.56441000      37.22414000      36.89731000      36.57383000      36.24027000      35.87683000      35.49933000      35.08058000      35.20359000      35.27419000      35.31944000      35.34415000
        39.44428000      39.36830000      39.22570000      39.00458000      38.77903000      38.50940000      38.18487000      37.88506000      37.55638000      37.19908000      36.87337000      36.55434000      36.22192000      35.86011000      35.49428000      35.07375000      35.19440000      35.26618000      35.31180000      35.33564000
        39.46794000      39.39617000      39.24343000      39.01768000      38.79304000      38.51400000      38.17374000      37.87084000      37.52058000      37.17212000      36.83072000      36.51499000      36.18220000      35.83409000      35.48026000      35.06054000      35.17920000      35.24882000      35.29452000      35.31855000
        39.50733000      39.43523000      39.28278000      39.04918000      38.80687000      38.52331000      38.16360000      37.83585000      37.49118000      37.09786000      36.76127000      36.45150000      36.12903000      35.79764000      35.44553000      35.04657000      35.16087000      35.22434000      35.26900000      35.29160000
        39.56323000      39.48372000      39.32643000      39.09917000      38.83920000      38.51747000      38.15275000      37.82075000      37.40413000      37.01783000      36.68762000      36.38203000      36.06906000      35.74686000      35.40453000      35.02406000      35.12483000      35.18920000      35.23169000      35.25449000
        39.62304000      39.55581000      39.39368000      39.15657000      38.87584000      38.53514000      38.14964000      37.73110000      37.34036000      36.92941000      36.57857000      36.29256000      35.99296000      35.68275000      35.35565000      34.98720000      35.08149000      35.13895000      35.18532000      35.20973000
        39.69748000      39.62867000      39.48893000      39.23745000      38.93113000      38.52678000      38.12131000      37.62715000      37.20589000      36.78615000      36.46046000      36.18710000      35.90162000      35.60485000      35.29105000      34.93961000      35.02407000      35.08036000      35.12684000      35.15440000
        39.81463000      39.74453000      39.62227000      39.39299000      38.98602000      38.53362000      38.05260000      37.46272000      36.99982000      36.61216000      36.32104000      36.06520000      35.79661000      35.50724000      35.21085000      34.87878000      34.93811000      35.00556000      35.06098000      35.09556000
        39.92625000      39.87621000      39.80353000      39.73610000    -999.99000000    -999.99000000    -999.99000000      37.06494000      36.67669000      36.40488000      36.16978000      35.92838000      35.67157000      35.40113000      35.11892000      34.79667000      34.80196000      34.90682000      34.99239000      35.03614000
        40.03601000      39.99668000      39.96541000      39.92950000    -999.99000000    -999.99000000    -999.99000000    -999.99000000      36.34749000      36.19390000      35.99963000      35.78482000      35.53898000      35.27147000      35.01722000      34.69901000      34.51911000      34.80622000      34.93839000      34.99188000
        40.10696000      40.08490000      40.06375000      40.05173000    -999.99000000    -999.99000000    -999.99000000    -999.99000000      36.11096000      36.00449000      35.84815000      35.64915000      35.39447000      35.10917000      34.92772000      34.70116000      34.72268000      34.84064000      34.93041000      34.97556000
        40.13375000      40.12455000      40.11404000      40.10673000    -999.99000000    -999.99000000    -999.99000000    -999.99000000      35.94029000      35.85919000      35.72190000      35.53486000      35.25414000      34.81543000      34.84076000      34.69898000      34.79051000      34.87362000      34.93889000      34.97415000
        40.12694000      40.11987000      40.11269000      40.10679000    -999.99000000    -999.99000000    -999.99000000    -999.99000000      35.81938000      35.75262000      35.63128000      35.47031000      35.25774000      35.01521000      34.88216000      34.71364000      34.81999000      34.89408000      34.94952000      34.97847000
        40.07992000      40.07429000      40.06348000      40.05748000    -999.99000000    -999.99000000    -999.99000000    -999.99000000      35.73479000      35.67448000      35.56963000      35.43505000      35.26463000      35.08014000      34.91498000      34.72431000      34.83452000      34.90597000      34.95613000      34.98197000
        39.98762000      39.98480000      39.97432000      39.96909000    -999.99000000    -999.99000000    -999.99000000    -999.99000000      35.67058000      35.61725000      35.52342000      35.40748000      35.26009000      35.09624000      34.92587000      34.72675000      34.83939000      34.90931000      34.95705000      34.98220000
        39.86404000      39.85741000      39.84670000      39.84435000    -999.99000000    -999.99000000    -999.99000000    -999.99000000      35.62306000      35.57106000      35.48867000      35.38101000      35.24547000      35.09059000      34.92189000      34.71995000      34.83386000      34.90487000      34.95313000      34.97798000
        39.68936000      39.67360000      39.67507000      39.68074000    -999.99000000    -999.99000000    -999.99000000    -999.99000000      35.58776000      35.54096000      35.45711000      35.35329000      35.22258000      35.07103000      34.90461000      34.70678000      34.81951000      34.89385000      34.94341000      34.96862000
        39.49701000      39.48393000      39.47148000      39.47625000    -999.99000000    -999.99000000    -999.99000000    -999.99000000      35.56688000      35.51589000      35.43055000      35.32553000      35.19226000      35.03940000      34.87389000      34.68458000      34.79831000      34.87636000      34.92847000      34.95509000
        39.26646000      39.25552000      39.23687000      39.23910000    -999.99000000    -999.99000000    -999.99000000    -999.99000000      35.55507000      35.50043000      35.40972000      35.29722000      35.15621000      34.99195000      34.81867000      34.65060000      34.77069000      34.85481000      34.91049000      34.93983000
        39.00283000      38.98198000      38.96005000      38.95353000    -999.99000000    -999.99000000    -999.99000000    -999.99000000      35.56097000      35.49566000      35.39553000      35.27237000      35.11495000      34.92372000      34.71335000      34.59942000      34.73694000      34.83127000      34.89283000      34.92281000
        38.70429000      38.68594000      38.66126000      38.62647000    -999.99000000    -999.99000000    -999.99000000    -999.99000000      35.59138000      35.50567000      35.39029000      35.25317000      35.07923000      34.84502000      34.46359000      34.53693000      34.70730000      34.81075000      34.87618000      34.90707000
        38.41091000      38.36520000      38.29404000      38.24077000    -999.99000000    -999.99000000      35.94866000      35.84795000      35.66359000      35.53081000      35.38660000      35.24531000      35.07921000      34.88532000      34.67675000      34.57041000      34.70801000      34.80054000      34.86222000      34.89323000
        38.07532000      38.02578000      37.93320000      37.77814000      37.45466000    -999.99000000      36.01084000      35.87942000      35.69375000      35.53532000      35.37436000      35.23216000      35.07811000      34.91525000      34.74779000      34.59128000      34.71188000      34.79452000      34.85119000      34.88055000
        37.79069000      37.71784000      37.60618000      37.42113000      37.09756000      36.58766000      36.16804000      35.90465000      35.70521000      35.50984000      35.33989000      35.20013000      35.06164000      34.91654000      34.76609000      34.59561000      34.70990000      34.78643000      34.84048000      34.86790000
        37.50672000      37.43169000      37.30625000      37.13520000      36.82088000      36.44771000      36.14847000      35.88707000      35.66223000      35.44237000      35.26660000      35.14050000      35.02263000      34.89685000      34.75770000      34.58798000      34.70170000      34.77479000      34.82676000      34.85290000
        37.24366000      37.17414000      37.05736000      36.83740000      36.58668000      36.31193000      36.05642000      35.80258000      35.57185000      35.34458000      35.12502000      35.04873000      34.96626000      34.86202000      34.73623000      34.57284000      34.68559000      34.75813000      34.80926000      34.83502000
        36.99270000      36.93068000      36.80474000      36.62935000      36.39134000      36.15435000      35.91047000      35.68769000      35.46298000      35.21330000      34.83438000      34.93510000      34.90436000      34.82095000      34.70731000      34.55262000      34.66562000      34.73775000      34.78605000      34.81217000
        36.77768000      36.71148000      36.58475000      36.41663000      36.19322000      35.96610000      35.73338000      35.54269000      35.36604000      35.17808000      34.98825000      34.93111000      34.86828000      34.78250000      34.67507000      34.52900000      34.64038000      34.71210000      34.76019000      34.78547000
        36.57933000      36.50139000      36.38333000      36.21160000      35.98703000      35.74767000      35.48888000      35.37196000      35.25585000      35.12259000      34.99375000      34.90684000      34.82746000      34.73920000      34.63745000      34.50122000      34.61048000      34.68146000      34.72956000      34.75530000
        36.39572000      36.31781000      36.18928000      36.01295000      35.80225000      35.52066000      35.08551000      35.18798000      35.13364000      35.03838000      34.93714000      34.84856000      34.76571000      34.68206000      34.58940000      34.46863000      34.57437000      34.64586000      34.69419000      34.71975000
        36.25251000      36.16941000      36.03685000      35.87284000      35.65164000      35.44119000      35.20368000      35.11366000      35.02868000      34.93515000      34.84160000      34.75701000      34.67896000      34.60544000      34.52934000      34.42871000      34.53343000      34.60486000      34.65415000      34.67969000
        36.17052000      36.04028000      35.89247000      35.69094000      35.51767000      35.32797000      35.14364000      35.01103000      34.91006000      34.80902000      34.71411000      34.62950000      34.55849000      34.50293000      34.45217000      34.38105000      34.48482000      34.55891000      34.60953000      34.63760000
      -999.99000000      35.90424000      35.73755000      35.53406000      35.35671000      35.17587000      35.00697000      34.87148000      34.75480000      34.64908000      34.55045000      34.46294000      34.39143000      34.36791000      34.35512000      34.32393000      34.42937000      34.50744000      34.56166000      34.59212000
      -999.99000000    -999.99000000      35.56297000      35.34859000      35.15432000      34.97808000      34.81437000      34.68650000      34.56774000      34.45440000      34.35184000      34.24846000      34.15226000      34.19350000      34.23796000      34.25836000      34.36715000      34.44960000      34.51065000      34.54853000
      -999.99000000    -999.99000000    -999.99000000      35.14692000      34.90206000      34.73055000      34.59022000      34.46312000      34.33787000      34.23287000      34.12907000      33.99506000      33.74888000      33.98771000      34.10911000      34.18648000      34.29702000      34.38481000      34.45236000      34.51539000
      -999.99000000    -999.99000000    -999.99000000    -999.99000000      34.57332000      34.43369000      34.29705000      34.16984000      34.06812000      33.98208000      33.90294000      33.82918000      33.77552000      33.87445000      33.99215000      34.11145000      34.21959000      34.30919000      34.36902000    -999.99000000
      -999.99000000    -999.99000000    -999.99000000    -999.99000000      34.35886000      34.09576000      33.94937000      33.82830000      33.75387000      33.69360000      33.64357000      33.61379000      33.62326000      33.71010000      33.84636000      34.02424000      34.13384000      34.23540000      34.31670000    -999.99000000
      -999.99000000    -999.99000000    -999.99000000    -999.99000000    -999.99000000      33.57618000      33.50656000      33.44521000      33.40305000      33.36277000      33.33740000      33.33328000      33.36430000      33.45748000      33.63480000      33.91716000      34.03632000      34.15018000    -999.99000000    -999.99000000
      -999.99000000    -999.99000000    -999.99000000    -999.99000000    -999.99000000      33.07076000      33.05794000      33.02863000      33.00349000      32.98382000      32.97305000      32.97925000      33.00997000      33.09189000      33.29087000      33.80259000      33.92598000    -999.99000000    -999.99000000    -999.99000000
      -999.99000000    -999.99000000    -999.99000000    -999.99000000    -999.99000000      32.52915000      32.52867000      32.53052000      32.52929000      32.52947000      32.53008000      32.53049000      32.53255000      32.53814000      32.54817000      32.54817000    -999.99000000    -999.99000000    -999.99000000    -999.99000000
END GRIDDATA

