# File generated by Flopy version 3.5.0.dev0 on 10/09/2023 at 14:30:13.
BEGIN options
END options

BEGIN continuous  FILEOUT  sfr.csv
  headwater  sfr  headwater
  tailwater  sfr  tailwater
  gage-1  inflow  40.0
END continuous  FILEOUT  sfr.csv

